<!--<routes>-->

<!--    <route id="route_ns" edges="n_t t_s"/>-->
<!--    <route id="route_nw" edges="n_t t_w"/>-->
<!--    <route id="route_ne" edges="n_t t_e"/>-->
<!--    <route id="route_we" edges="w_t t_e"/>-->
<!--    <route id="route_wn" edges="w_t t_n"/>-->
<!--    <route id="route_ws" edges="w_t t_s"/>-->
<!--    <route id="route_ew" edges="e_t t_w"/>-->
<!--    <route id="route_en" edges="e_t t_n"/>-->
<!--    <route id="route_es" edges="e_t t_s"/>-->
<!--    <route id="route_sn" edges="s_t t_n"/>-->
<!--    <route id="route_se" edges="s_t t_e"/>-->
<!--    <route id="route_sw" edges="s_t t_w"/>-->
<!--&lt;!&ndash;    <vType id="car_red" accel="2.6" decel="4.5" sigma="0.5" length="4.5" minGap="2.5" maxSpeed="50" guiShape="passenger" color="1,0,0"/> &lt;!&ndash; red car &ndash;&gt;&ndash;&gt;-->
<!--&lt;!&ndash;    <vType id="car_blue" accel="2.6" decel="4.5" sigma="0.5" length="4.5" minGap="2.5" maxSpeed="50" guiShape="passenger" color="0,0,1"/> &lt;!&ndash; blue car &ndash;&gt;&ndash;&gt;-->
<!--&lt;!&ndash;    <vType id="truck_yellow" accel="1.5" decel="3.5" sigma="0.5" length="10" minGap="3.5" maxSpeed="40" guiShape="truck" color="1,1,0"/> &lt;!&ndash; yellow truck &ndash;&gt;&ndash;&gt;-->

<!--    <flow id="flow_ns" route="route_ns" begin="0" end="25000" probability="0.35" departSpeed="max" departPos="base" departLane="best" type="car_red"/>-->
<!--    <flow id="flow_nw" route="route_nw" begin="0" end="25000" probability="0.35" departSpeed="max" departPos="base" departLane="best" type="car_red"/>-->
<!--    <flow id="flow_ne" route="route_ne" begin="0" end="25000" probability="0.30" departSpeed="max" departPos="base" departLane="best" type="car_red"/>-->
<!--    <flow id="flow_sw" route="route_sw" begin="0" end="25000" probability="0.30" departSpeed="max" departPos="base" departLane="best" type="car_red"/>-->
<!--    <flow id="flow_sn" route="route_sn" begin="0" end="25000" probability="0.35" departSpeed="max" departPos="base" departLane="best" type="car_red"/>-->
<!--    <flow id="flow_se" route="route_se" begin="0" end="25000" probability="0.35" departSpeed="max" departPos="base" departLane="best" type="car_red"/>-->

<!--    <flow id="flow_en" route="route_en" begin="0" end="25000" probability="0.10" departSpeed="max" departPos="base" departLane="best" type="car_red"/>-->
<!--    <flow id="flow_ew" route="route_ew" begin="0" end="25000" probability="0.10" departSpeed="max" departPos="base" departLane="best" type="car_red"/>-->
<!--    <flow id="flow_es" route="route_es" begin="0" end="25000" probability="0.50" departSpeed="max" departPos="base" departLane="best" type="car_red"/>-->
<!--    <flow id="flow_wn" route="route_wn" begin="0" end="25000" probability="0.50" departSpeed="max" departPos="base" departLane="best" type="car_red"/>-->
<!--    <flow id="flow_we" route="route_we" begin="0" end="25000" probability="0.10" departSpeed="max" departPos="base" departLane="best" type="car_red"/>-->
<!--    <flow id="flow_ws" route="route_ws" begin="0" end="25000" probability="0.10" departSpeed="max" departPos="base" departLane="best" type="car_red"/>-->


<!--    <flow id="flow_ns2" route="route_ns" begin="25000" end="50000" probability="0.10" departSpeed="max" departPos="base" departLane="best" type="car_red"/>-->
<!--    <flow id="flow_nw2" route="route_nw" begin="25000" end="50000" probability="0.10" departSpeed="max" departPos="base" departLane="best" type="car_red"/>-->
<!--    <flow id="flow_ne2" route="route_ne" begin="25000" end="50000" probability="0.50" departSpeed="max" departPos="base" departLane="best" type="car_red"/>-->
<!--    <flow id="flow_sw2" route="route_sw" begin="25000" end="50000" probability="0.50" departSpeed="max" departPos="base" departLane="best" type="car_red"/>-->
<!--    <flow id="flow_sn2" route="route_sn" begin="25000" end="50000" probability="0.10" departSpeed="max" departPos="base" departLane="best" type="car_red"/>-->
<!--    <flow id="flow_se2" route="route_se" begin="25000" end="50000" probability="0.10" departSpeed="max" departPos="base" departLane="best" type="car_red"/>-->

<!--    <flow id="flow_en2" route="route_en" begin="25000" end="50000" probability="0.35" departSpeed="max" departPos="base" departLane="best" type="car_red"/>-->
<!--    <flow id="flow_ew2" route="route_ew" begin="25000" end="50000" probability="0.35" departSpeed="max" departPos="base" departLane="best" type="car_red"/>-->
<!--    <flow id="flow_es2" route="route_es" begin="25000" end="50000" probability="0.30" departSpeed="max" departPos="base" departLane="best" type="car_red"/>-->
<!--    <flow id="flow_wn2" route="route_wn" begin="25000" end="50000" probability="0.30" departSpeed="max" departPos="base" departLane="best" type="car_red"/>-->
<!--    <flow id="flow_we2" route="route_we" begin="25000" end="50000" probability="0.35" departSpeed="max" departPos="base" departLane="best" type="car_red"/>-->
<!--    <flow id="flow_ws2" route="route_ws" begin="25000" end="50000" probability="0.35" departSpeed="max" departPos="base" departLane="best" type="car_red"/>-->


<!--    <flow id="flow_ns3" route="route_ns" begin="50000" end="75000" probability="0.35" departSpeed="max" departPos="base" departLane="best" type="car_red"/>-->
<!--    <flow id="flow_nw3" route="route_nw" begin="50000" end="75000" probability="0.35" departSpeed="max" departPos="base" departLane="best" type="car_red"/>-->
<!--    <flow id="flow_ne3" route="route_ne" begin="50000" end="75000" probability="0.30" departSpeed="max" departPos="base" departLane="best" type="car_red"/>-->
<!--    <flow id="flow_sw3" route="route_sw" begin="50000" end="75000" probability="0.30" departSpeed="max" departPos="base" departLane="best" type="car_red"/>-->
<!--    <flow id="flow_sn3" route="route_sn" begin="50000" end="75000" probability="0.35" departSpeed="max" departPos="base" departLane="best" type="car_red"/>-->
<!--    <flow id="flow_se3" route="route_se" begin="50000" end="75000" probability="0.35" departSpeed="max" departPos="base" departLane="best" type="car_red"/>-->

<!--    <flow id="flow_en3" route="route_en" begin="50000" end="75000" probability="0.10" departSpeed="max" departPos="base" departLane="best" type="car_red"/>-->
<!--    <flow id="flow_ew3" route="route_ew" begin="50000" end="75000" probability="0.10" departSpeed="max" departPos="base" departLane="best" type="car_red"/>-->
<!--    <flow id="flow_es3" route="route_es" begin="50000" end="75000" probability="0.50" departSpeed="max" departPos="base" departLane="best" type="car_red"/>-->
<!--    <flow id="flow_wn3" route="route_wn" begin="50000" end="75000" probability="0.50" departSpeed="max" departPos="base" departLane="best" type="car_red"/>-->
<!--    <flow id="flow_we3" route="route_we" begin="50000" end="75000" probability="0.10" departSpeed="max" departPos="base" departLane="best" type="car_red"/>-->
<!--    <flow id="flow_ws3" route="route_ws" begin="50000" end="75000" probability="0.10" departSpeed="max" departPos="base" departLane="best" type="car_red"/>-->


<!--    <flow id="flow_ns4" route="route_ns" begin="75000" end="100000" probability="0.10" departSpeed="max" departPos="base" departLane="best" type="car_red"/>-->
<!--    <flow id="flow_nw4" route="route_nw" begin="75000" end="100000" probability="0.10" departSpeed="max" departPos="base" departLane="best" type="car_red"/>-->
<!--    <flow id="flow_ne4" route="route_ne" begin="75000" end="100000" probability="0.50" departSpeed="max" departPos="base" departLane="best" type="car_red"/>-->
<!--    <flow id="flow_sw4" route="route_sw" begin="75000" end="100000" probability="0.50" departSpeed="max" departPos="base" departLane="best" type="car_red"/>-->
<!--    <flow id="flow_sn4" route="route_sn" begin="75000" end="100000" probability="0.10" departSpeed="max" departPos="base" departLane="best" type="car_red"/>-->
<!--    <flow id="flow_se4" route="route_se" begin="75000" end="100000" probability="0.10" departSpeed="max" departPos="base" departLane="best" type="car_red"/>-->

<!--    <flow id="flow_en4" route="route_en" begin="75000" end="100000" probability="0.35" departSpeed="max" departPos="base" departLane="best" type="car_red"/>-->
<!--    <flow id="flow_ew4" route="route_ew" begin="75000" end="100000" probability="0.35" departSpeed="max" departPos="base" departLane="best" type="car_red"/>-->
<!--    <flow id="flow_es4" route="route_es" begin="75000" end="100000" probability="0.30" departSpeed="max" departPos="base" departLane="best" type="car_red"/>-->
<!--    <flow id="flow_wn4" route="route_wn" begin="75000" end="100000" probability="0.30" departSpeed="max" departPos="base" departLane="best" type="car_red"/>-->
<!--    <flow id="flow_we4" route="route_we" begin="75000" end="100000" probability="0.35" departSpeed="max" departPos="base" departLane="best" type="car_red"/>-->
<!--    <flow id="flow_ws4" route="route_ws" begin="75000" end="100000" probability="0.35" departSpeed="max" departPos="base" departLane="best" type="car_red"/>-->

<!--</routes>-->



<routes>
    <route id="route_ns" edges="n_t t_s"/>
    <route id="route_nw" edges="n_t t_w"/>
    <route id="route_ne" edges="n_t t_e"/>
    <route id="route_we" edges="w_t t_e"/>
    <route id="route_wn" edges="w_t t_n"/>
    <route id="route_ws" edges="w_t t_s"/>
    <route id="route_ew" edges="e_t t_w"/>
    <route id="route_en" edges="e_t t_n"/>
    <route id="route_es" edges="e_t t_s"/>
    <route id="route_sn" edges="s_t t_n"/>
    <route id="route_se" edges="s_t t_e"/>
    <route id="route_sw" edges="s_t t_w"/>
    <vType id="car_red" accel="2.6" decel="4.5" sigma="0.5" length="4.5" minGap="2.5" maxSpeed="50" guiShape="passenger" color="1,0,0" priority="3"/> <!-- red car -->
    <vType id="truck_yellow" accel="1.5" decel="3.5" sigma="0.5" length="10" minGap="3.5" maxSpeed="40" guiShape="truck" color="1,1,0" priority="2"/> <!-- yellow truck -->
    <vType id="car_blue" accel="2.6" decel="4.5" sigma="0.5" length="4.5" minGap="2.5" maxSpeed="50" guiShape="passenger" color="0,0,1" priority="3"/> <!-- blue car -->
    <vType id="police_car" accel="3.5" decel="5.5" sigma="0.5" length="5" minGap="2.5" maxSpeed="60" guiShape="passenger" color="1,1,1" priority="1"/> <!-- police car -->
    <vType id="fire_truck" accel="2.5" decel="4.5" sigma="0.5" length="12" minGap="4.5" maxSpeed="45" guiShape="truck" color="1,0,0" priority="2"/> <!-- fire truck -->
    <vType id="ambulance" accel="3.0" decel="5.0" sigma="0.5" length="6" minGap="3.0" maxSpeed="55" guiShape="bus" color="1,1,1" priority="1"/> <!-- ambulance -->
    <vType id="bus" accel="2.0" decel="3.0" sigma="0.5" length="12" minGap="4.0" maxSpeed="40" guiShape="bus" color="0,1,0" priority="3"/> <!-- bus -->


    <flow id="flow_ns" route="route_ns" begin="0" end="25000" vehsPerHour="3500" departSpeed="max" departPos="base" departLane="best" type="car_red"/>
    <flow id="flow_nw" route="route_nw" begin="0" end="25000" vehsPerHour="3500" departSpeed="max" departPos="base" departLane="best" type="car_blue"/>
    <flow id="flow_ne" route="route_ne" begin="0" end="25000" vehsPerHour="3000" departSpeed="max" departPos="base" departLane="best" type="car_red"/>
    <flow id="flow_sw" route="route_sw" begin="0" end="25000" vehsPerHour="2000" departSpeed="max" departPos="base" departLane="best" type="bus"/>
    <flow id="flow_sn" route="route_sn" begin="0" end="25000" vehsPerHour="3500" departSpeed="max" departPos="base" departLane="best" type="car_red"/>
    <flow id="flow_se" route="route_se" begin="0" end="25000" vehsPerHour="1500" departSpeed="max" departPos="base" departLane="best" type="truck_yellow"/>

    <flow id="flow_en" route="route_en" begin="0" end="25000" vehsPerHour="1000" departSpeed="max" departPos="base" departLane="best" type="fire_truck"/>
    <flow id="flow_ew" route="route_ew" begin="0" end="25000" vehsPerHour="2000" departSpeed="max" departPos="base" departLane="best" type="car_red"/>
    <flow id="flow_es" route="route_es" begin="0" end="25000" vehsPerHour="1500" departSpeed="max" departPos="base" departLane="best" type="bus"/>
    <flow id="flow_wn" route="route_wn" begin="0" end="25000" vehsPerHour="500" departSpeed="max" departPos="base" departLane="best" type="police_car"/>
    <flow id="flow_we" route="route_we" begin="0" end="25000" vehsPerHour="1000" departSpeed="max" departPos="base" departLane="best" type="truck_yellow"/>
    <flow id="flow_ws" route="route_ws" begin="0" end="25000" vehsPerHour="1000" departSpeed="max" departPos="base" departLane="best" type="ambulance"/>


    <flow id="flow_ns2" route="route_ns" begin="25000" end="50000" vehsPerHour="1000" departSpeed="max" departPos="base" departLane="best" type="car_red"/>
    <flow id="flow_nw2" route="route_nw" begin="25000" end="50000" vehsPerHour="1000" departSpeed="max" departPos="base" departLane="best" type="truck_yellow"/>
    <flow id="flow_ne2" route="route_ne" begin="25000" end="50000" vehsPerHour="500" departSpeed="max" departPos="base" departLane="best" type="fire_truck"/>
    <flow id="flow_sw2" route="route_sw" begin="25000" end="50000" vehsPerHour="500" departSpeed="max" departPos="base" departLane="best" type="police_car"/>
    <flow id="flow_sn2" route="route_sn" begin="25000" end="50000" vehsPerHour="1000" departSpeed="max" departPos="base" departLane="best" type="car_red"/>
    <flow id="flow_se2" route="route_se" begin="25000" end="50000" vehsPerHour="1000" departSpeed="max" departPos="base" departLane="best" type="bus"/>

    <flow id="flow_en2" route="route_en" begin="25000" end="50000" vehsPerHour="3500" departSpeed="max" departPos="base" departLane="best" type="car_red"/>
    <flow id="flow_ew2" route="route_ew" begin="25000" end="50000" vehsPerHour="500" departSpeed="max" departPos="base" departLane="best" type="ambulance"/>
    <flow id="flow_es2" route="route_es" begin="25000" end="50000" vehsPerHour="3000" departSpeed="max" departPos="base" departLane="best" type="car_red"/>
    <flow id="flow_wn2" route="route_wn" begin="25000" end="50000" vehsPerHour="3000" departSpeed="max" departPos="base" departLane="best" type="car_blue"/>
    <flow id="flow_we2" route="route_we" begin="25000" end="50000" vehsPerHour="500" departSpeed="max" departPos="base" departLane="best" type="fire_truck"/>
    <flow id="flow_ws2" route="route_ws" begin="25000" end="50000" vehsPerHour="3500" departSpeed="max" departPos="base" departLane="best" type="car_red"/>


    <flow id="flow_ns3" route="route_ns" begin="50000" end="75000" vehsPerHour="3500" departSpeed="max" departPos="base" departLane="best" type="car_red"/>
    <flow id="flow_nw3" route="route_nw" begin="50000" end="75000" vehsPerHour="3500" departSpeed="max" departPos="base" departLane="best" type="car_red"/>
    <flow id="flow_ne3" route="route_ne" begin="50000" end="75000" vehsPerHour="3000" departSpeed="max" departPos="base" departLane="best" type="car_blue"/>
    <flow id="flow_sw3" route="route_sw" begin="50000" end="75000" vehsPerHour="3000" departSpeed="max" departPos="base" departLane="best" type="car_red"/>
    <flow id="flow_sn3" route="route_sn" begin="50000" end="75000" vehsPerHour="3500" departSpeed="max" departPos="base" departLane="best" type="car_blue"/>
    <flow id="flow_se3" route="route_se" begin="50000" end="75000" vehsPerHour="3500" departSpeed="max" departPos="base" departLane="best" type="car_red"/>

    <flow id="flow_en3" route="route_en" begin="50000" end="75000" vehsPerHour="1000" departSpeed="max" departPos="base" departLane="best" type="truck_yellow"/>
    <flow id="flow_ew3" route="route_ew" begin="50000" end="75000" vehsPerHour="1000" departSpeed="max" departPos="base" departLane="best" type="police_car"/>
    <flow id="flow_es3" route="route_es" begin="50000" end="75000" vehsPerHour="1500" departSpeed="max" departPos="base" departLane="best" type="bus"/>
    <flow id="flow_wn3" route="route_wn" begin="50000" end="75000" vehsPerHour="3500" departSpeed="max" departPos="base" departLane="best" type="car_blue"/>
    <flow id="flow_we3" route="route_we" begin="50000" end="75000" vehsPerHour="1000" departSpeed="max" departPos="base" departLane="best" type="fire_truck"/>
    <flow id="flow_ws3" route="route_ws" begin="50000" end="75000" vehsPerHour="1000" departSpeed="max" departPos="base" departLane="best" type="ambulance"/>


    <flow id="flow_ns4" route="route_ns" begin="75000" end="100000" vehsPerHour="2000" departSpeed="max" departPos="base" departLane="best" type="truck_yellow"/>
    <flow id="flow_nw4" route="route_nw" begin="75000" end="100000" vehsPerHour="3000" departSpeed="max" departPos="base" departLane="best" type="car_red"/>
    <flow id="flow_ne4" route="route_ne" begin="75000" end="100000" vehsPerHour="500" departSpeed="max" departPos="base" departLane="best" type="police_car"/>
    <flow id="flow_sw4" route="route_sw" begin="75000" end="100000" vehsPerHour="1500" departSpeed="max" departPos="base" departLane="best" type="car_red"/>
    <flow id="flow_sn4" route="route_sn" begin="75000" end="100000" vehsPerHour="1000" departSpeed="max" departPos="base" departLane="best" type="bus"/>
    <flow id="flow_se4" route="route_se" begin="75000" end="100000" vehsPerHour="2000" departSpeed="max" departPos="base" departLane="best" type="car_red"/>

    <flow id="flow_en4" route="route_en" begin="75000" end="100000" vehsPerHour="3500" departSpeed="max" departPos="base" departLane="best" type="car_red"/>
    <flow id="flow_ew4" route="route_ew" begin="75000" end="100000" vehsPerHour="500" departSpeed="max" departPos="base" departLane="best" type="ambulance"/>
    <flow id="flow_es4" route="route_es" begin="75000" end="100000" vehsPerHour="3000" departSpeed="max" departPos="base" departLane="best" type="fire_truck"/>
    <flow id="flow_wn4" route="route_wn" begin="75000" end="100000" vehsPerHour="3000" departSpeed="max" departPos="base" departLane="best" type="car_blue"/>
    <flow id="flow_we4" route="route_we" begin="75000" end="100000" vehsPerHour="1500" departSpeed="max" departPos="base" departLane="best" type="bus"/>
    <flow id="flow_ws4" route="route_ws" begin="75000" end="100000" vehsPerHour="3500" departSpeed="max" departPos="base" departLane="best" type="car_red"/>

</routes>
